Version 4
SHEET 1 880 680
WIRE 288 -112 176 -112
WIRE 176 -32 176 -112
WIRE 272 -32 176 -32
WIRE 176 -16 176 -32
WIRE 128 0 48 0
WIRE 288 16 288 -32
WIRE 304 16 288 16
WIRE 272 32 272 -32
WIRE 272 32 176 32
WIRE 304 32 304 16
WIRE 176 128 176 80
WIRE 304 128 176 128
WIRE 48 240 48 0
WIRE 304 240 304 208
WIRE 48 352 48 320
FLAG 48 352 0
FLAG 304 240 0
FLAG 304 32 0
SYMBOL voltage 304 112 R0
SYMATTR InstName vds
SYMATTR Value 1.8
SYMBOL voltage 48 224 R0
SYMATTR InstName vgs
SYMATTR Value 1.8
SYMBOL pmos4 128 80 M180
SYMATTR InstName M2
SYMATTR Value P_180n
SYMATTR Value2 l=180e-9 w=360e-9
SYMBOL voltage 288 -128 R0
SYMATTR InstName vdd
SYMATTR Value 1.8
TEXT -72 392 Left 2 !.include MOSIS_TSMC_180nm.txt
TEXT 232 328 Left 2 !.dc vds 0 1.8 0.001 vgs 0 1.8 0.3
